Version 4
SHEET 1 1112 680
WIRE 576 -64 -80 -64
WIRE -128 16 -160 16
WIRE 576 32 576 -64
WIRE 112 80 64 80
WIRE 256 80 192 80
WIRE 352 144 160 144
WIRE 64 160 64 80
WIRE 128 160 64 160
WIRE 256 176 256 80
WIRE 256 176 192 176
WIRE 352 176 256 176
WIRE -80 192 -80 112
WIRE 128 192 -80 192
WIRE -80 224 -80 192
WIRE 64 224 64 160
WIRE 64 304 -80 304
WIRE 160 304 160 208
WIRE 160 304 64 304
WIRE 576 304 576 112
WIRE 576 304 160 304
WIRE -80 336 -80 304
WIRE 64 336 64 304
FLAG 352 176 CUno_A1
IOPIN 352 176 Out
FLAG -80 336 0
FLAG 352 144 CUno_5V
IOPIN 352 144 In
FLAG -160 16 CUno_D2
IOPIN -160 16 In
FLAG 64 336 CUno_GND
IOPIN 64 336 Out
SYMBOL Opamps\\OP07 160 112 R0
SYMATTR InstName U1
SYMBOL res 208 64 R90
WINDOW 0 0 56 VBottom 2
WINDOW 3 32 56 VTop 2
SYMATTR InstName R2
SYMBOL res 48 208 R0
SYMATTR InstName R1
SYMBOL res -96 208 R0
SYMATTR InstName R3
SYMATTR Value 0.01
SYMBOL ind -96 16 R0
SYMATTR InstName Rotor1
SYMATTR SpiceLine Rser=15
SYMBOL nmos -128 -64 R0
SYMATTR InstName M2
SYMBOL Misc\\battery 576 16 R0
WINDOW 123 0 0 Left 2
WINDOW 39 0 0 Left 2
SYMATTR InstName Vmain
SYMATTR Value 12
