Version 4
SHEET 1 880 680
WIRE 64 16 64 -16
WIRE 16 96 -48 96
WIRE 64 224 64 192
FLAG -48 96 CUno_A0
IOPIN -48 96 In
FLAG 64 -16 COM
FLAG 64 224 Rotor
IOPIN 64 224 Out
SYMBOL ind 48 96 R0
SYMATTR InstName Rotor
SYMATTR SpiceLine Rser=15
SYMBOL nmos 16 16 R0
SYMATTR InstName M1
