Version 4
SHEET 1 880 680
WIRE 288 32 144 32
WIRE 528 32 288 32
WIRE 176 48 -48 48
WIRE 336 48 176 48
WIRE 432 64 48 64
WIRE -48 96 -48 48
WIRE 48 96 48 64
WIRE 144 96 144 32
WIRE 336 96 336 48
WIRE 432 96 432 64
WIRE 528 96 528 32
WIRE -48 224 -48 176
WIRE 288 224 288 32
WIRE 288 224 -48 224
WIRE 336 224 336 176
WIRE 336 224 288 224
WIRE 48 240 48 176
WIRE 432 240 432 176
WIRE 432 240 48 240
WIRE 144 272 144 176
WIRE 176 272 176 48
WIRE 176 272 144 272
WIRE 528 272 528 176
WIRE 528 272 176 272
WIRE 0 0 0 0
SYMBOL voltage -48 80 R0
WINDOW 123 0 0 Left 2
WINDOW 39 0 0 Left 2
SYMATTR InstName V1
SYMATTR Value SINE()
SYMBOL voltage 48 80 R0
WINDOW 123 0 0 Left 2
WINDOW 39 0 0 Left 2
SYMATTR InstName V2
SYMATTR Value SINE()
SYMBOL voltage 144 80 R0
WINDOW 123 0 0 Left 2
WINDOW 39 0 0 Left 2
SYMATTR InstName V3
SYMATTR Value SINE()
SYMBOL voltage 240 80 R0
WINDOW 123 0 0 Left 2
WINDOW 39 0 0 Left 2
SYMATTR InstName V4
SYMATTR Value SINE()
SYMBOL voltage 336 80 R0
WINDOW 123 0 0 Left 2
WINDOW 39 0 0 Left 2
SYMATTR InstName V5
SYMATTR Value SINE()
SYMBOL voltage 432 80 R0
WINDOW 123 0 0 Left 2
WINDOW 39 0 0 Left 2
SYMATTR InstName V6
SYMATTR Value SINE()
SYMBOL voltage 528 80 R0
WINDOW 123 0 0 Left 2
WINDOW 39 0 0 Left 2
SYMATTR InstName V7
SYMATTR Value SINE()
SYMBOL voltage 608 80 R0
WINDOW 123 0 0 Left 2
WINDOW 39 0 0 Left 2
SYMATTR InstName V8
SYMATTR Value SINE()
